cimhub/glm/Master_curr.csv
# Master_curr.csv run at 2000-01-01 00:00:00 EST on 3574 links
link_name,currA_mag,currA_angle,currB_mag,currB_angle,currC_mag,currC_angle
line_ol_632_b_xfmr_632_b_2,0.000000,0.000000,0.498443,4.164248,0.000000,0.000000
line_ol_632_b_xfmr_632_b_3,0.000000,0.000000,0.498443,4.164248,0.000000,0.000000
line_ol_632_b_xfmr_632_b_4,0.000000,0.000000,0.498443,4.164248,0.000000,0.000000
line_ol_632_b_xfmr_632_b_5,0.000000,0.000000,0.498443,4.164248,0.000000,0.000000
line_ol_632_b_xfmr_632_b_1,0.000000,0.000000,0.498443,4.164248,0.000000,0.000000
tpx_trip_line_645_b_h_5,0.623071,4.164178,0.623071,1.022585,0.000000,0.000000
tpx_trip_line_645_b_h_6,0.623071,4.164178,0.623071,1.022585,0.000000,0.000000
tpx_trip_line_645_b_h_7,0.623071,4.164178,0.623071,1.022585,0.000000,0.000000
tpx_trip_line_645_b_h_8,0.623071,4.164178,0.623071,1.022585,0.000000,0.000000
tpx_trip_line_645_b_h_9,0.623071,4.164178,0.623071,1.022585,0.000000,0.000000
tpx_trip_line_645_b_h_1,0.623071,4.164178,0.623071,1.022585,0.000000,0.000000
tpx_trip_line_645_b_h_2,0.623071,4.164178,0.623071,1.022585,0.000000,0.000000
tpx_trip_line_645_b_h_3,0.623071,4.164178,0.623071,1.022585,0.000000,0.000000
tpx_trip_line_645_b_h_4,0.623071,4.164178,0.623071,1.022585,0.000000,0.000000
line_ol_684_c_xfmr_684_c_5,0.000000,0.000000,0.000000,0.000000,0.486423,2.056110
line_ol_684_c_xfmr_684_c_4,0.000000,0.000000,0.000000,0.000000,0.486423,2.056110
line_ol_684_c_xfmr_684_c_3,0.000000,0.000000,0.000000,0.000000,0.486423,2.056110
line_ol_684_c_xfmr_684_c_2,0.000000,0.000000,0.000000,0.000000,0.486423,2.056110
line_ol_684_c_xfmr_684_c_1,0.000000,0.000000,0.000000,0.000000,0.486423,2.056110
line_ol_675_c_xfmr_675_c_1,0.000000,0.000000,0.000000,0.000000,0.483738,2.053855
tpx_trip_line_692_c_h_40,0.607981,2.056095,0.607981,-1.085498,0.000000,0.000000
line_ol_675_c_xfmr_675_c_2,0.000000,0.000000,0.000000,0.000000,0.483738,2.053855
line_ol_675_c_xfmr_675_c_3,0.000000,0.000000,0.000000,0.000000,0.483738,2.053855
line_ol_675_c_xfmr_675_c_4,0.000000,0.000000,0.000000,0.000000,0.483738,2.053855
line_ol_675_c_xfmr_675_c_5,0.000000,0.000000,0.000000,0.000000,0.483738,2.053855
line_ol_671_c,0.000000,0.000000,0.000000,0.000000,2.432026,2.056157
line_ol_671_a,2.437605,-0.048460,0.000000,0.000000,0.000000,0.000000
line_ol_671_b,0.000000,0.000000,2.443809,4.155893,0.000000,0.000000
tpx_trip_line_632_a_h_6,0.622247,-0.033750,0.622247,3.107843,0.000000,0.000000
tpx_trip_line_632_a_h_7,0.622247,-0.033750,0.622247,3.107843,0.000000,0.000000
tpx_trip_line_632_a_h_4,0.622247,-0.033750,0.622247,3.107843,0.000000,0.000000
tpx_trip_line_632_a_h_5,0.622247,-0.033750,0.622247,3.107843,0.000000,0.000000
tpx_trip_line_632_a_h_2,0.622247,-0.033750,0.622247,3.107843,0.000000,0.000000
tpx_trip_line_632_a_h_3,0.622247,-0.033750,0.622247,3.107843,0.000000,0.000000
tpx_trip_line_632_a_h_1,0.622247,-0.033750,0.622247,3.107843,0.000000,0.000000
tpx_trip_line_632_a_h_8,0.622247,-0.033750,0.622247,3.107843,0.000000,0.000000
tpx_trip_line_632_a_h_9,0.622247,-0.033750,0.622247,3.107843,0.000000,0.000000
tpx_trip_line_671_a_h_40,0.609398,-0.048507,0.609398,3.093086,0.000000,0.000000
tpx_trip_line_692_b_h_12,0.610929,4.155833,0.610929,1.014240,0.000000,0.000000
tpx_trip_line_692_b_h_13,0.610929,4.155833,0.610929,1.014240,0.000000,0.000000
tpx_trip_line_692_b_h_10,0.610929,4.155833,0.610929,1.014240,0.000000,0.000000
tpx_trip_line_692_b_h_11,0.610929,4.155833,0.610929,1.014240,0.000000,0.000000
tpx_trip_line_692_b_h_16,0.610929,4.155833,0.610929,1.014240,0.000000,0.000000
tpx_trip_line_692_b_h_17,0.610929,4.155833,0.610929,1.014240,0.000000,0.000000
tpx_trip_line_692_b_h_14,0.610929,4.155833,0.610929,1.014240,0.000000,0.000000
tpx_trip_line_692_b_h_15,0.610929,4.155833,0.610929,1.014240,0.000000,0.000000
tpx_trip_line_692_b_h_18,0.610929,4.155833,0.610929,1.014240,0.000000,0.000000
tpx_trip_line_692_b_h_19,0.610929,4.155833,0.610929,1.014240,0.000000,0.000000
tpx_trip_line_692_c_h_25,0.607981,2.056095,0.607981,-1.085498,0.000000,0.000000
tpx_trip_line_692_c_h_24,0.607981,2.056095,0.607981,-1.085498,0.000000,0.000000
tpx_trip_line_692_c_h_23,0.607981,2.056095,0.607981,-1.085498,0.000000,0.000000
tpx_trip_line_692_c_h_22,0.607981,2.056095,0.607981,-1.085498,0.000000,0.000000
tpx_trip_line_692_c_h_21,0.607981,2.056095,0.607981,-1.085498,0.000000,0.000000
tpx_trip_line_692_c_h_20,0.607981,2.056095,0.607981,-1.085498,0.000000,0.000000
tpx_trip_line_632_b_h_40,0.623051,4.164211,0.623051,1.022619,0.000000,0.000000
tpx_trip_line_692_c_h_29,0.607981,2.056095,0.607981,-1.085498,0.000000,0.000000
tpx_trip_line_692_c_h_28,0.607981,2.056095,0.607981,-1.085498,0.000000,0.000000
tpx_trip_line_692_c_h_27,0.607981,2.056095,0.607981,-1.085498,0.000000,0.000000
tpx_trip_line_692_c_h_26,0.607981,2.056095,0.607981,-1.085498,0.000000,0.000000
tpx_trip_line_671_a_h_31,0.609398,-0.048507,0.609398,3.093086,0.000000,0.000000
tpx_trip_line_671_a_h_30,0.609398,-0.048507,0.609398,3.093086,0.000000,0.000000
tpx_trip_line_692_b_h_20,0.610929,4.155833,0.610929,1.014240,0.000000,0.000000
tpx_trip_line_632_b_h_39,0.623051,4.164211,0.623051,1.022619,0.000000,0.000000
tpx_trip_line_632_b_h_38,0.623051,4.164211,0.623051,1.022619,0.000000,0.000000
tpx_trip_line_632_b_h_37,0.623051,4.164211,0.623051,1.022619,0.000000,0.000000
tpx_trip_line_671_a_h_35,0.609398,-0.048507,0.609398,3.093086,0.000000,0.000000
tpx_trip_line_692_b_h_23,0.610929,4.155833,0.610929,1.014240,0.000000,0.000000
tpx_trip_line_632_b_h_36,0.623051,4.164211,0.623051,1.022619,0.000000,0.000000
tpx_trip_line_671_a_h_34,0.609398,-0.048507,0.609398,3.093086,0.000000,0.000000
tpx_trip_line_692_b_h_24,0.610929,4.155833,0.610929,1.014240,0.000000,0.000000
tpx_trip_line_632_b_h_35,0.623051,4.164211,0.623051,1.022619,0.000000,0.000000
tpx_trip_line_671_a_h_33,0.609398,-0.048507,0.609398,3.093086,0.000000,0.000000
tpx_trip_line_692_b_h_21,0.610929,4.155833,0.610929,1.014240,0.000000,0.000000
tpx_trip_line_632_b_h_34,0.623051,4.164211,0.623051,1.022619,0.000000,0.000000
tpx_trip_line_671_a_h_32,0.609398,-0.048507,0.609398,3.093086,0.000000,0.000000
tpx_trip_line_692_b_h_22,0.610929,4.155833,0.610929,1.014240,0.000000,0.000000
tpx_trip_line_671_a_h_39,0.609398,-0.048507,0.609398,3.093086,0.000000,0.000000
tpx_trip_line_692_b_h_27,0.610929,4.155833,0.610929,1.014240,0.000000,0.000000
tpx_trip_line_671_a_h_38,0.609398,-0.048507,0.609398,3.093086,0.000000,0.000000
tpx_trip_line_692_b_h_28,0.610929,4.155833,0.610929,1.014240,0.000000,0.000000
tpx_trip_line_671_a_h_37,0.609398,-0.048507,0.609398,3.093086,0.000000,0.000000
tpx_trip_line_692_b_h_25,0.610929,4.155833,0.610929,1.014240,0.000000,0.000000
tpx_trip_line_671_a_h_36,0.609398,-0.048507,0.609398,3.093086,0.000000,0.000000
tpx_trip_line_692_b_h_26,0.610929,4.155833,0.610929,1.014240,0.000000,0.000000
tpx_trip_line_692_b_h_29,0.610929,4.155833,0.610929,1.014240,0.000000,0.000000
tpx_trip_line_692_c_h_36,0.607981,2.056095,0.607981,-1.085498,0.000000,0.000000
tpx_trip_line_692_c_h_35,0.607981,2.056095,0.607981,-1.085498,0.000000,0.000000
tpx_trip_line_692_c_h_34,0.607981,2.056095,0.607981,-1.085498,0.000000,0.000000
tpx_trip_line_692_c_h_33,0.607981,2.056095,0.607981,-1.085498,0.000000,0.000000
tpx_trip_line_692_c_h_32,0.607981,2.056095,0.607981,-1.085498,0.000000,0.000000
tpx_trip_line_692_c_h_31,0.607981,2.056095,0.607981,-1.085498,0.000000,0.000000
tpx_trip_line_692_c_h_30,0.607981,2.056095,0.607981,-1.085498,0.000000,0.000000
tpx_trip_line_632_b_h_33,0.623051,4.164211,0.623051,1.022619,0.000000,0.000000
tpx_trip_line_632_b_h_32,0.623051,4.164211,0.623051,1.022619,0.000000,0.000000
tpx_trip_line_632_b_h_31,0.623051,4.164211,0.623051,1.022619,0.000000,0.000000
tpx_trip_line_632_b_h_30,0.623051,4.164211,0.623051,1.022619,0.000000,0.000000
tpx_trip_line_692_c_h_39,0.607981,2.056095,0.607981,-1.085498,0.000000,0.000000
tpx_trip_line_692_c_h_38,0.607981,2.056095,0.607981,-1.085498,0.000000,0.000000
tpx_trip_line_692_c_h_37,0.607981,2.056095,0.607981,-1.085498,0.000000,0.000000
tpx_trip_line_645_c_h_19,0.621342,2.066029,0.621342,-1.075563,0.000000,0.000000
tpx_trip_line_645_c_h_2,0.621342,2.066029,0.621342,-1.075563,0.000000,0.000000
tpx_trip_line_671_a_h_20,0.609398,-0.048507,0.609398,3.093086,0.000000,0.000000
tpx_trip_line_692_b_h_30,0.610929,4.155833,0.610929,1.014240,0.000000,0.000000
line_ol_684_a,2.437611,-0.048512,0.000000,0.000000,0.000000,0.000000
tpx_trip_line_632_b_h_29,0.623051,4.164211,0.623051,1.022619,0.000000,0.000000
tpx_trip_line_645_c_h_3,0.621342,2.066029,0.621342,-1.075563,0.000000,0.000000
tpx_trip_line_692_b_h_31,0.610929,4.155833,0.610929,1.014240,0.000000,0.000000
tpx_trip_line_632_b_h_28,0.623051,4.164211,0.623051,1.022619,0.000000,0.000000
tpx_trip_line_632_b_h_27,0.623051,4.164211,0.623051,1.022619,0.000000,0.000000
tpx_trip_line_645_c_h_1,0.621342,2.066029,0.621342,-1.075563,0.000000,0.000000
tpx_trip_line_632_b_h_26,0.623051,4.164211,0.623051,1.022619,0.000000,0.000000
tpx_trip_line_645_c_h_15,0.621342,2.066029,0.621342,-1.075563,0.000000,0.000000
tpx_trip_line_671_a_h_24,0.609398,-0.048507,0.609398,3.093086,0.000000,0.000000
tpx_trip_line_692_b_h_34,0.610929,4.155833,0.610929,1.014240,0.000000,0.000000
tpx_trip_line_632_b_h_25,0.623051,4.164211,0.623051,1.022619,0.000000,0.000000
tpx_trip_line_645_c_h_16,0.621342,2.066029,0.621342,-1.075563,0.000000,0.000000
tpx_trip_line_671_a_h_23,0.609398,-0.048507,0.609398,3.093086,0.000000,0.000000
tpx_trip_line_692_b_h_35,0.610929,4.155833,0.610929,1.014240,0.000000,0.000000
tpx_trip_line_632_b_h_24,0.623051,4.164211,0.623051,1.022619,0.000000,0.000000
tpx_trip_line_645_c_h_17,0.621342,2.066029,0.621342,-1.075563,0.000000,0.000000
tpx_trip_line_671_a_h_22,0.609398,-0.048507,0.609398,3.093086,0.000000,0.000000
tpx_trip_line_692_b_h_32,0.610929,4.155833,0.610929,1.014240,0.000000,0.000000
line_ol_684_c,0.000000,0.000000,0.000000,0.000000,2.432115,2.056119
tpx_trip_line_632_b_h_23,0.623051,4.164211,0.623051,1.022619,0.000000,0.000000
tpx_trip_line_645_c_h_18,0.621342,2.066029,0.621342,-1.075563,0.000000,0.000000
tpx_trip_line_671_a_h_21,0.609398,-0.048507,0.609398,3.093086,0.000000,0.000000
tpx_trip_line_692_b_h_33,0.610929,4.155833,0.610929,1.014240,0.000000,0.000000
tpx_trip_line_671_a_h_28,0.609398,-0.048507,0.609398,3.093086,0.000000,0.000000
tpx_trip_line_692_b_h_38,0.610929,4.155833,0.610929,1.014240,0.000000,0.000000
tpx_trip_line_671_a_h_27,0.609398,-0.048507,0.609398,3.093086,0.000000,0.000000
tpx_trip_line_692_b_h_39,0.610929,4.155833,0.610929,1.014240,0.000000,0.000000
tpx_trip_line_645_c_h_8,0.621342,2.066029,0.621342,-1.075563,0.000000,0.000000
tpx_trip_line_671_a_h_26,0.609398,-0.048507,0.609398,3.093086,0.000000,0.000000
tpx_trip_line_692_b_h_36,0.610929,4.155833,0.610929,1.014240,0.000000,0.000000
tpx_trip_line_645_c_h_9,0.621342,2.066029,0.621342,-1.075563,0.000000,0.000000
tpx_trip_line_671_a_h_25,0.609398,-0.048507,0.609398,3.093086,0.000000,0.000000
tpx_trip_line_692_b_h_37,0.610929,4.155833,0.610929,1.014240,0.000000,0.000000
tpx_trip_line_645_c_h_6,0.621342,2.066029,0.621342,-1.075563,0.000000,0.000000
tpx_trip_line_645_c_h_7,0.621342,2.066029,0.621342,-1.075563,0.000000,0.000000
tpx_trip_line_645_c_h_4,0.621342,2.066029,0.621342,-1.075563,0.000000,0.000000
tpx_trip_line_645_c_h_5,0.621342,2.066029,0.621342,-1.075563,0.000000,0.000000
tpx_trip_line_671_a_h_29,0.609398,-0.048507,0.609398,3.093086,0.000000,0.000000
tpx_trip_line_632_b_h_22,0.623051,4.164211,0.623051,1.022619,0.000000,0.000000
tpx_trip_line_645_c_h_11,0.621342,2.066029,0.621342,-1.075563,0.000000,0.000000
tpx_trip_line_632_b_h_21,0.623051,4.164211,0.623051,1.022619,0.000000,0.000000
tpx_trip_line_645_c_h_12,0.621342,2.066029,0.621342,-1.075563,0.000000,0.000000
tpx_trip_line_632_b_h_20,0.623051,4.164211,0.623051,1.022619,0.000000,0.000000
tpx_trip_line_645_c_h_13,0.621342,2.066029,0.621342,-1.075563,0.000000,0.000000
tpx_trip_line_645_c_h_14,0.621342,2.066029,0.621342,-1.075563,0.000000,0.000000
tpx_trip_line_645_c_h_10,0.621342,2.066029,0.621342,-1.075563,0.000000,0.000000
tpx_trip_line_632_b_h_19,0.623051,4.164211,0.623051,1.022619,0.000000,0.000000
tpx_trip_line_632_b_h_18,0.623051,4.164211,0.623051,1.022619,0.000000,0.000000
tpx_trip_line_632_b_h_17,0.623051,4.164211,0.623051,1.022619,0.000000,0.000000
tpx_trip_line_632_b_h_16,0.623051,4.164211,0.623051,1.022619,0.000000,0.000000
tpx_trip_line_692_b_h_40,0.610929,4.155833,0.610929,1.014240,0.000000,0.000000
tpx_trip_line_632_b_h_15,0.623051,4.164211,0.623051,1.022619,0.000000,0.000000
tpx_trip_line_645_c_h_26,0.621342,2.066029,0.621342,-1.075563,0.000000,0.000000
tpx_trip_line_671_a_h_13,0.609398,-0.048507,0.609398,3.093086,0.000000,0.000000
tpx_trip_line_632_b_h_14,0.623051,4.164211,0.623051,1.022619,0.000000,0.000000
tpx_trip_line_645_c_h_27,0.621342,2.066029,0.621342,-1.075563,0.000000,0.000000
tpx_trip_line_671_a_h_12,0.609398,-0.048507,0.609398,3.093086,0.000000,0.000000
tpx_trip_line_632_b_h_13,0.623051,4.164211,0.623051,1.022619,0.000000,0.000000
tpx_trip_line_645_c_h_28,0.621342,2.066029,0.621342,-1.075563,0.000000,0.000000
tpx_trip_line_671_a_h_11,0.609398,-0.048507,0.609398,3.093086,0.000000,0.000000
tpx_trip_line_632_b_h_12,0.623051,4.164211,0.623051,1.022619,0.000000,0.000000
tpx_trip_line_645_c_h_29,0.621342,2.066029,0.621342,-1.075563,0.000000,0.000000
tpx_trip_line_671_a_h_10,0.609398,-0.048507,0.609398,3.093086,0.000000,0.000000
tpx_trip_line_671_a_h_17,0.609398,-0.048507,0.609398,3.093086,0.000000,0.000000
tpx_trip_line_671_a_h_16,0.609398,-0.048507,0.609398,3.093086,0.000000,0.000000
tpx_trip_line_671_a_h_15,0.609398,-0.048507,0.609398,3.093086,0.000000,0.000000
tpx_trip_line_671_a_h_14,0.609398,-0.048507,0.609398,3.093086,0.000000,0.000000
tpx_trip_line_671_a_h_19,0.609398,-0.048507,0.609398,3.093086,0.000000,0.000000
tpx_trip_line_671_a_h_18,0.609398,-0.048507,0.609398,3.093086,0.000000,0.000000
line_ul692-675,472.564125,1.513718,471.187774,-0.563712,473.754312,3.619517
tpx_trip_line_692_c_h_14,0.607981,2.056095,0.607981,-1.085498,0.000000,0.000000
tpx_trip_line_692_c_h_13,0.607981,2.056095,0.607981,-1.085498,0.000000,0.000000
tpx_trip_line_692_c_h_12,0.607981,2.056095,0.607981,-1.085498,0.000000,0.000000
tpx_trip_line_692_c_h_11,0.607981,2.056095,0.607981,-1.085498,0.000000,0.000000
tpx_trip_line_692_c_h_10,0.607981,2.056095,0.607981,-1.085498,0.000000,0.000000
tpx_trip_line_632_b_h_11,0.623051,4.164211,0.623051,1.022619,0.000000,0.000000
tpx_trip_line_645_c_h_22,0.621342,2.066029,0.621342,-1.075563,0.000000,0.000000
tpx_trip_line_632_b_h_10,0.623051,4.164211,0.623051,1.022619,0.000000,0.000000
tpx_trip_line_645_c_h_23,0.621342,2.066029,0.621342,-1.075563,0.000000,0.000000
tpx_trip_line_645_c_h_24,0.621342,2.066029,0.621342,-1.075563,0.000000,0.000000
tpx_trip_line_645_c_h_25,0.621342,2.066029,0.621342,-1.075563,0.000000,0.000000
tpx_trip_line_692_c_h_19,0.607981,2.056095,0.607981,-1.085498,0.000000,0.000000
tpx_trip_line_692_c_h_18,0.607981,2.056095,0.607981,-1.085498,0.000000,0.000000
tpx_trip_line_692_c_h_17,0.607981,2.056095,0.607981,-1.085498,0.000000,0.000000
tpx_trip_line_645_c_h_20,0.621342,2.066029,0.621342,-1.075563,0.000000,0.000000
tpx_trip_line_692_c_h_16,0.607981,2.056095,0.607981,-1.085498,0.000000,0.000000
tpx_trip_line_645_c_h_21,0.621342,2.066029,0.621342,-1.075563,0.000000,0.000000
tpx_trip_line_692_c_h_15,0.607981,2.056095,0.607981,-1.085498,0.000000,0.000000
tpx_trip_line_645_c_h_37,0.621342,2.066029,0.621342,-1.075563,0.000000,0.000000
tpx_trip_line_645_c_h_38,0.621342,2.066029,0.621342,-1.075563,0.000000,0.000000
tpx_trip_line_652_a_h_40,0.609455,-0.048651,0.609455,3.092941,0.000000,0.000000
tpx_trip_line_645_c_h_39,0.621342,2.066029,0.621342,-1.075563,0.000000,0.000000
tpx_trip_line_684_c_h_40,0.608025,2.056072,0.608025,-1.085521,0.000000,0.000000
tpx_trip_line_675_c_h_20,0.604669,2.053816,0.604669,-1.087777,0.000000,0.000000
tpx_trip_line_675_c_h_22,0.604669,2.053816,0.604669,-1.087777,0.000000,0.000000
tpx_trip_line_675_c_h_21,0.604669,2.053816,0.604669,-1.087777,0.000000,0.000000
tpx_trip_line_675_c_h_24,0.604669,2.053816,0.604669,-1.087777,0.000000,0.000000
tpx_trip_line_675_c_h_23,0.604669,2.053816,0.604669,-1.087777,0.000000,0.000000
tpx_trip_line_675_c_h_26,0.604669,2.053816,0.604669,-1.087777,0.000000,0.000000
tpx_trip_line_675_c_h_25,0.604669,2.053816,0.604669,-1.087777,0.000000,0.000000
tpx_trip_line_675_c_h_28,0.604669,2.053816,0.604669,-1.087777,0.000000,0.000000
tpx_trip_line_675_c_h_27,0.604669,2.053816,0.604669,-1.087777,0.000000,0.000000
line_ul684-652,2.437834,-0.048464,0.000000,0.000000,0.000000,0.000000
tpx_trip_line_675_c_h_29,0.604669,2.053816,0.604669,-1.087777,0.000000,0.000000
tpx_trip_line_645_c_h_33,0.621342,2.066029,0.621342,-1.075563,0.000000,0.000000
tpx_trip_line_645_c_h_34,0.621342,2.066029,0.621342,-1.075563,0.000000,0.000000
tpx_trip_line_645_c_h_35,0.621342,2.066029,0.621342,-1.075563,0.000000,0.000000
tpx_trip_line_645_c_h_36,0.621342,2.066029,0.621342,-1.075563,0.000000,0.000000
tpx_trip_line_645_c_h_30,0.621342,2.066029,0.621342,-1.075563,0.000000,0.000000
tpx_trip_line_645_c_h_31,0.621342,2.066029,0.621342,-1.075563,0.000000,0.000000
tpx_trip_line_645_c_h_32,0.621342,2.066029,0.621342,-1.075563,0.000000,0.000000
tpx_trip_line_632_a_h_10,0.622247,-0.033750,0.622247,3.107843,0.000000,0.000000
tpx_trip_line_675_c_h_11,0.604669,2.053816,0.604669,-1.087777,0.000000,0.000000
tpx_trip_line_675_c_h_10,0.604669,2.053816,0.604669,-1.087777,0.000000,0.000000
tpx_trip_line_632_a_h_13,0.622247,-0.033750,0.622247,3.107843,0.000000,0.000000
tpx_trip_line_675_c_h_13,0.604669,2.053816,0.604669,-1.087777,0.000000,0.000000
tpx_trip_line_632_a_h_14,0.622247,-0.033750,0.622247,3.107843,0.000000,0.000000
tpx_trip_line_675_c_h_12,0.604669,2.053816,0.604669,-1.087777,0.000000,0.000000
tpx_trip_line_632_a_h_11,0.622247,-0.033750,0.622247,3.107843,0.000000,0.000000
tpx_trip_line_675_c_h_15,0.604669,2.053816,0.604669,-1.087777,0.000000,0.000000
tpx_trip_line_632_a_h_12,0.622247,-0.033750,0.622247,3.107843,0.000000,0.000000
tpx_trip_line_675_c_h_14,0.604669,2.053816,0.604669,-1.087777,0.000000,0.000000
tpx_trip_line_632_a_h_17,0.622247,-0.033750,0.622247,3.107843,0.000000,0.000000
tpx_trip_line_675_c_h_17,0.604669,2.053816,0.604669,-1.087777,0.000000,0.000000
tpx_trip_line_632_a_h_18,0.622247,-0.033750,0.622247,3.107843,0.000000,0.000000
tpx_trip_line_675_c_h_16,0.604669,2.053816,0.604669,-1.087777,0.000000,0.000000
tpx_trip_line_632_a_h_15,0.622247,-0.033750,0.622247,3.107843,0.000000,0.000000
tpx_trip_line_675_c_h_19,0.604669,2.053816,0.604669,-1.087777,0.000000,0.000000
tpx_trip_line_632_a_h_16,0.622247,-0.033750,0.622247,3.107843,0.000000,0.000000
tpx_trip_line_675_c_h_18,0.604669,2.053816,0.604669,-1.087777,0.000000,0.000000
tpx_trip_line_632_a_h_19,0.622247,-0.033750,0.622247,3.107843,0.000000,0.000000
tpx_trip_line_645_c_h_40,0.621342,2.066029,0.621342,-1.075563,0.000000,0.000000
tpx_trip_line_684_c_h_20,0.608025,2.056072,0.608025,-1.085521,0.000000,0.000000
tpx_trip_line_684_c_h_26,0.608025,2.056072,0.608025,-1.085521,0.000000,0.000000
tpx_trip_line_684_c_h_25,0.608025,2.056072,0.608025,-1.085521,0.000000,0.000000
tpx_trip_line_652_a_h_29,0.609455,-0.048651,0.609455,3.092941,0.000000,0.000000
tpx_trip_line_684_c_h_28,0.608025,2.056072,0.608025,-1.085521,0.000000,0.000000
tpx_trip_line_652_a_h_28,0.609455,-0.048651,0.609455,3.092941,0.000000,0.000000
tpx_trip_line_684_c_h_27,0.608025,2.056072,0.608025,-1.085521,0.000000,0.000000
tpx_trip_line_684_c_h_22,0.608025,2.056072,0.608025,-1.085521,0.000000,0.000000
tpx_trip_line_684_c_h_21,0.608025,2.056072,0.608025,-1.085521,0.000000,0.000000
line_ol_671_c_xfmr_671_c_1,0.000000,0.000000,0.000000,0.000000,0.486405,2.056148
tpx_trip_line_684_c_h_24,0.608025,2.056072,0.608025,-1.085521,0.000000,0.000000
tpx_trip_line_684_c_h_23,0.608025,2.056072,0.608025,-1.085521,0.000000,0.000000
line_ol_671_c_xfmr_671_c_3,0.000000,0.000000,0.000000,0.000000,0.486405,2.056148
tpx_trip_line_652_a_h_23,0.609455,-0.048651,0.609455,3.092941,0.000000,0.000000
line_ol_671_c_xfmr_671_c_2,0.000000,0.000000,0.000000,0.000000,0.486405,2.056148
tpx_trip_line_652_a_h_22,0.609455,-0.048651,0.609455,3.092941,0.000000,0.000000
line_ol_671_c_xfmr_671_c_5,0.000000,0.000000,0.000000,0.000000,0.486405,2.056148
tpx_trip_line_652_a_h_21,0.609455,-0.048651,0.609455,3.092941,0.000000,0.000000
line_ol_671_c_xfmr_671_c_4,0.000000,0.000000,0.000000,0.000000,0.486405,2.056148
tpx_trip_line_652_a_h_20,0.609455,-0.048651,0.609455,3.092941,0.000000,0.000000
tpx_trip_line_652_a_h_27,0.609455,-0.048651,0.609455,3.092941,0.000000,0.000000
tpx_trip_line_652_a_h_26,0.609455,-0.048651,0.609455,3.092941,0.000000,0.000000
tpx_trip_line_684_c_h_29,0.608025,2.056072,0.608025,-1.085521,0.000000,0.000000
tpx_trip_line_652_a_h_25,0.609455,-0.048651,0.609455,3.092941,0.000000,0.000000
tpx_trip_line_652_a_h_24,0.609455,-0.048651,0.609455,3.092941,0.000000,0.000000
tpx_trip_line_652_a_h_30,0.609455,-0.048651,0.609455,3.092941,0.000000,0.000000
tpx_trip_line_684_c_h_31,0.608025,2.056072,0.608025,-1.085521,0.000000,0.000000
tpx_trip_line_684_c_h_30,0.608025,2.056072,0.608025,-1.085521,0.000000,0.000000
tpx_trip_line_684_c_h_37,0.608025,2.056072,0.608025,-1.085521,0.000000,0.000000
tpx_trip_line_684_c_h_36,0.608025,2.056072,0.608025,-1.085521,0.000000,0.000000
tpx_trip_line_684_c_h_39,0.608025,2.056072,0.608025,-1.085521,0.000000,0.000000
tpx_trip_line_652_a_h_39,0.609455,-0.048651,0.609455,3.092941,0.000000,0.000000
tpx_trip_line_684_c_h_38,0.608025,2.056072,0.608025,-1.085521,0.000000,0.000000
tpx_trip_line_684_c_h_33,0.608025,2.056072,0.608025,-1.085521,0.000000,0.000000
tpx_trip_line_684_c_h_32,0.608025,2.056072,0.608025,-1.085521,0.000000,0.000000
tpx_trip_line_684_c_h_35,0.608025,2.056072,0.608025,-1.085521,0.000000,0.000000
tpx_trip_line_684_c_h_34,0.608025,2.056072,0.608025,-1.085521,0.000000,0.000000
tpx_trip_line_652_a_h_34,0.609455,-0.048651,0.609455,3.092941,0.000000,0.000000
tpx_trip_line_652_a_h_33,0.609455,-0.048651,0.609455,3.092941,0.000000,0.000000
tpx_trip_line_652_a_h_32,0.609455,-0.048651,0.609455,3.092941,0.000000,0.000000
tpx_trip_line_652_a_h_31,0.609455,-0.048651,0.609455,3.092941,0.000000,0.000000
tpx_trip_line_652_a_h_38,0.609455,-0.048651,0.609455,3.092941,0.000000,0.000000
tpx_trip_line_652_a_h_37,0.609455,-0.048651,0.609455,3.092941,0.000000,0.000000
tpx_trip_line_652_a_h_36,0.609455,-0.048651,0.609455,3.092941,0.000000,0.000000
tpx_trip_line_652_a_h_35,0.609455,-0.048651,0.609455,3.092941,0.000000,0.000000
tpx_trip_line_692_a_h_18,0.609377,-0.048530,0.609377,3.093063,0.000000,0.000000
tpx_trip_line_692_a_h_17,0.609377,-0.048530,0.609377,3.093063,0.000000,0.000000
tpx_trip_line_692_a_h_19,0.609377,-0.048530,0.609377,3.093063,0.000000,0.000000
tpx_trip_line_692_a_h_14,0.609377,-0.048530,0.609377,3.093063,0.000000,0.000000
tpx_trip_line_692_a_h_13,0.609377,-0.048530,0.609377,3.093063,0.000000,0.000000
tpx_trip_line_692_a_h_16,0.609377,-0.048530,0.609377,3.093063,0.000000,0.000000
tpx_trip_line_692_a_h_15,0.609377,-0.048530,0.609377,3.093063,0.000000,0.000000
tpx_trip_line_692_a_h_10,0.609377,-0.048530,0.609377,3.093063,0.000000,0.000000
tpx_trip_line_692_a_h_12,0.609377,-0.048530,0.609377,3.093063,0.000000,0.000000
tpx_trip_line_692_a_h_11,0.609377,-0.048530,0.609377,3.093063,0.000000,0.000000
tpx_trip_line_671_b_h_40,0.610949,4.155846,0.610949,1.014254,0.000000,0.000000
line_ol_680_c,0.000000,0.000000,0.000000,0.000000,2.432082,2.056101
line_ol_633_a_xfmr_633_a_4,0.497810,-0.033742,0.000000,0.000000,0.000000,0.000000
line_ol_633_a_xfmr_633_a_5,0.497810,-0.033742,0.000000,0.000000,0.000000,0.000000
line_ol_633_a_xfmr_633_a_2,0.497810,-0.033742,0.000000,0.000000,0.000000,0.000000
line_ol_633_a_xfmr_633_a_3,0.497810,-0.033742,0.000000,0.000000,0.000000,0.000000
line_ol_684_a_xfmr_684_a_1,0.487522,-0.048521,0.000000,0.000000,0.000000,0.000000
line_ol_680_b,0.000000,0.000000,2.443859,4.155842,0.000000,0.000000
line_ol_684_a_xfmr_684_a_2,0.487522,-0.048521,0.000000,0.000000,0.000000,0.000000
line_ol_633_a_xfmr_633_a_1,0.497810,-0.033742,0.000000,0.000000,0.000000,0.000000
line_ol_680_a,2.437691,-0.048514,0.000000,0.000000,0.000000,0.000000
line_ol_684_a_xfmr_684_a_3,0.487522,-0.048521,0.000000,0.000000,0.000000,0.000000
line_ol_684_a_xfmr_684_a_4,0.487522,-0.048521,0.000000,0.000000,0.000000,0.000000
line_ol_684_a_xfmr_684_a_5,0.487522,-0.048521,0.000000,0.000000,0.000000,0.000000
tpx_trip_line_611_c_h_7,0.608046,2.056038,0.608046,-1.085555,0.000000,0.000000
tpx_trip_line_611_c_h_8,0.608046,2.056038,0.608046,-1.085555,0.000000,0.000000
tpx_trip_line_611_c_h_5,0.608046,2.056038,0.608046,-1.085555,0.000000,0.000000
tpx_trip_line_611_c_h_6,0.608046,2.056038,0.608046,-1.085555,0.000000,0.000000
tpx_trip_line_611_c_h_9,0.608046,2.056038,0.608046,-1.085555,0.000000,0.000000
tpx_trip_line_611_c_h_3,0.608046,2.056038,0.608046,-1.085555,0.000000,0.000000
tpx_trip_line_611_c_h_4,0.608046,2.056038,0.608046,-1.085555,0.000000,0.000000
tpx_trip_line_611_c_h_1,0.608046,2.056038,0.608046,-1.085555,0.000000,0.000000
tpx_trip_line_611_c_h_2,0.608046,2.056038,0.608046,-1.085555,0.000000,0.000000
line_ol684-611,0.000000,0.000000,0.000000,0.000000,2.432198,2.056138
tpx_trip_line_684_a_h_4,0.609399,-0.048559,0.609399,3.093034,0.000000,0.000000
tpx_trip_line_684_a_h_3,0.609399,-0.048559,0.609399,3.093034,0.000000,0.000000
tpx_trip_line_684_a_h_6,0.609399,-0.048559,0.609399,3.093034,0.000000,0.000000
tpx_trip_line_684_a_h_5,0.609399,-0.048559,0.609399,3.093034,0.000000,0.000000
tpx_trip_line_684_a_h_8,0.609399,-0.048559,0.609399,3.093034,0.000000,0.000000
tpx_trip_line_684_a_h_7,0.609399,-0.048559,0.609399,3.093034,0.000000,0.000000
tpx_trip_line_684_a_h_9,0.609399,-0.048559,0.609399,3.093034,0.000000,0.000000
tpx_trip_line_671_b_h_15,0.610949,4.155846,0.610949,1.014254,0.000000,0.000000
tpx_trip_line_671_b_h_16,0.610949,4.155846,0.610949,1.014254,0.000000,0.000000
tpx_trip_line_671_b_h_17,0.610949,4.155846,0.610949,1.014254,0.000000,0.000000
tpx_trip_line_671_b_h_18,0.610949,4.155846,0.610949,1.014254,0.000000,0.000000
tpx_trip_line_671_b_h_19,0.610949,4.155846,0.610949,1.014254,0.000000,0.000000
tpx_trip_line_671_b_h_10,0.610949,4.155846,0.610949,1.014254,0.000000,0.000000
tpx_trip_line_671_b_h_11,0.610949,4.155846,0.610949,1.014254,0.000000,0.000000
tpx_trip_line_671_b_h_12,0.610949,4.155846,0.610949,1.014254,0.000000,0.000000
tpx_trip_line_671_b_h_13,0.610949,4.155846,0.610949,1.014254,0.000000,0.000000
tpx_trip_line_671_b_h_14,0.610949,4.155846,0.610949,1.014254,0.000000,0.000000
tpx_trip_line_633_b_h_9,0.623058,4.164185,0.623058,1.022592,0.000000,0.000000
tpx_trip_line_633_b_h_8,0.623058,4.164185,0.623058,1.022592,0.000000,0.000000
line_ol630-632,473.100264,1.477431,471.593602,-0.595115,474.383513,3.578156
tpx_trip_line_633_b_h_7,0.623058,4.164185,0.623058,1.022592,0.000000,0.000000
tpx_trip_line_633_b_h_6,0.623058,4.164185,0.623058,1.022592,0.000000,0.000000
line_ol_632_a,2.489002,-0.033705,0.000000,0.000000,0.000000,0.000000
line_ol_632_b,0.000000,0.000000,2.492217,4.164256,0.000000,0.000000
line_ol_632_c,0.000000,0.000000,0.000000,0.000000,2.485375,2.066119
tpx_trip_line_633_b_h_1,0.623058,4.164185,0.623058,1.022592,0.000000,0.000000
tpx_trip_line_633_b_h_5,0.623058,4.164185,0.623058,1.022592,0.000000,0.000000
tpx_trip_line_633_b_h_4,0.623058,4.164185,0.623058,1.022592,0.000000,0.000000
tpx_trip_line_633_b_h_3,0.623058,4.164185,0.623058,1.022592,0.000000,0.000000
tpx_trip_line_633_b_h_2,0.623058,4.164185,0.623058,1.022592,0.000000,0.000000
tpx_trip_line_671_b_h_37,0.610949,4.155846,0.610949,1.014254,0.000000,0.000000
tpx_trip_line_671_b_h_38,0.610949,4.155846,0.610949,1.014254,0.000000,0.000000
tpx_trip_line_671_b_h_39,0.610949,4.155846,0.610949,1.014254,0.000000,0.000000
tpx_trip_line_671_b_h_30,0.610949,4.155846,0.610949,1.014254,0.000000,0.000000
tpx_trip_line_671_b_h_31,0.610949,4.155846,0.610949,1.014254,0.000000,0.000000
tpx_trip_line_671_b_h_32,0.610949,4.155846,0.610949,1.014254,0.000000,0.000000
tpx_trip_line_671_b_h_33,0.610949,4.155846,0.610949,1.014254,0.000000,0.000000
tpx_trip_line_671_b_h_34,0.610949,4.155846,0.610949,1.014254,0.000000,0.000000
tpx_trip_line_671_b_h_35,0.610949,4.155846,0.610949,1.014254,0.000000,0.000000
tpx_trip_line_671_b_h_36,0.610949,4.155846,0.610949,1.014254,0.000000,0.000000
tpx_trip_line_671_b_h_26,0.610949,4.155846,0.610949,1.014254,0.000000,0.000000
tpx_trip_line_671_b_h_27,0.610949,4.155846,0.610949,1.014254,0.000000,0.000000
tpx_trip_line_671_b_h_28,0.610949,4.155846,0.610949,1.014254,0.000000,0.000000
tpx_trip_line_671_b_h_29,0.610949,4.155846,0.610949,1.014254,0.000000,0.000000
tpx_trip_line_684_a_h_2,0.609399,-0.048559,0.609399,3.093034,0.000000,0.000000
tpx_trip_line_684_a_h_1,0.609399,-0.048559,0.609399,3.093034,0.000000,0.000000
tpx_trip_line_671_b_h_20,0.610949,4.155846,0.610949,1.014254,0.000000,0.000000
tpx_trip_line_671_b_h_21,0.610949,4.155846,0.610949,1.014254,0.000000,0.000000
tpx_trip_line_671_b_h_22,0.610949,4.155846,0.610949,1.014254,0.000000,0.000000
tpx_trip_line_671_b_h_23,0.610949,4.155846,0.610949,1.014254,0.000000,0.000000
tpx_trip_line_671_b_h_24,0.610949,4.155846,0.610949,1.014254,0.000000,0.000000
tpx_trip_line_671_b_h_25,0.610949,4.155846,0.610949,1.014254,0.000000,0.000000
line_ol_645_c,0.000000,0.000000,0.000000,0.000000,2.485380,2.066074
line_ol_645_b,0.000000,0.000000,2.492297,4.164222,0.000000,0.000000
tpx_trip_line_632_a_h_40,0.622247,-0.033750,0.622247,3.107843,0.000000,0.000000
line_ol671-684,4.875471,-0.048455,0.000000,0.000000,4.864288,2.056162
line_ol671-680,2.437597,-0.048245,2.443915,4.156130,2.432120,2.056348
tpx_trip_line_675_c_h_40,0.604669,2.053816,0.604669,-1.087777,0.000000,0.000000
tpx_trip_line_632_a_h_20,0.622247,-0.033750,0.622247,3.107843,0.000000,0.000000
tpx_trip_line_632_a_h_21,0.622247,-0.033750,0.622247,3.107843,0.000000,0.000000
tpx_trip_line_632_a_h_24,0.622247,-0.033750,0.622247,3.107843,0.000000,0.000000
tpx_trip_line_632_a_h_25,0.622247,-0.033750,0.622247,3.107843,0.000000,0.000000
...