cimhub/glm/Master_volt.csv
# Master_volt.csv run at 2000-01-01 00:00:00 EST on 3573 powerflow objects (not all are nodes)
node_name,voltA_mag,voltA_angle,voltB_mag,voltB_angle,voltC_mag,voltC_angle
cap_cap1,2791.585058,-0.036353,2785.334950,4.168025,2796.666753,2.068534
cap_cap2,2791.585058,-0.036353,2785.334950,4.168025,2796.666753,2.068534
trip_load_632_c_h_19,136.170618,2.081751,136.179700,2.081900,0.000000,0.000000
ld_trip_load_632_c_19,136.170618,2.081751,136.179700,2.081900,0.000000,0.000000
trip_load_632_c_h_17,136.170618,2.081751,136.179700,2.081900,0.000000,0.000000
ld_trip_load_632_c_17,136.170618,2.081751,136.179700,2.081900,0.000000,0.000000
trip_load_632_c_h_18,136.170618,2.081751,136.179700,2.081900,0.000000,0.000000
ld_trip_load_632_c_18,136.170618,2.081751,136.179700,2.081900,0.000000,0.000000
trip_load_684_c_h_40,139.056268,2.070674,139.065161,2.070817,0.000000,0.000000
ld_trip_load_684_c_40,139.056268,2.070674,139.065161,2.070817,0.000000,0.000000
trip_load_632_c_h_15,136.170618,2.081751,136.179700,2.081900,0.000000,0.000000
ld_trip_load_632_c_15,136.170618,2.081751,136.179700,2.081900,0.000000,0.000000
trip_load_632_c_h_16,136.170618,2.081751,136.179700,2.081900,0.000000,0.000000
ld_trip_load_632_c_16,136.170618,2.081751,136.179700,2.081900,0.000000,0.000000
meter_684_c,0.000000,0.000000,0.000000,0.000000,2781.229277,2.070759
trip_load_632_b_h_9,135.913379,4.178718,135.922478,4.178868,0.000000,0.000000
ld_trip_load_632_b_9,135.913379,4.178718,135.922478,4.178868,0.000000,0.000000
trip_load_632_b_h_5,135.913379,4.178718,135.922478,4.178868,0.000000,0.000000
ld_trip_load_632_b_5,135.913379,4.178718,135.922478,4.178868,0.000000,0.000000
trip_load_632_b_h_6,135.913379,4.178718,135.922478,4.178868,0.000000,0.000000
ld_trip_load_632_b_6,135.913379,4.178718,135.922478,4.178868,0.000000,0.000000
trip_load_632_b_h_7,135.913379,4.178718,135.922478,4.178868,0.000000,0.000000
ld_trip_load_632_b_7,135.913379,4.178718,135.922478,4.178868,0.000000,0.000000
trip_load_645_b_h_1,135.902781,4.178635,135.911881,4.178785,0.000000,0.000000
ld_trip_load_645_b_1,135.902781,4.178635,135.911881,4.178785,0.000000,0.000000
trip_load_632_b_h_8,135.913379,4.178718,135.922478,4.178868,0.000000,0.000000
ld_trip_load_632_b_8,135.913379,4.178718,135.922478,4.178868,0.000000,0.000000
trip_load_645_b_h_2,135.902781,4.178635,135.911881,4.178785,0.000000,0.000000
ld_trip_load_645_b_2,135.902781,4.178635,135.911881,4.178785,0.000000,0.000000
trip_load_632_b_h_1,135.913379,4.178718,135.922478,4.178868,0.000000,0.000000
ld_trip_load_632_b_1,135.913379,4.178718,135.922478,4.178868,0.000000,0.000000
trip_load_632_c_h_24,136.170618,2.081751,136.179700,2.081900,0.000000,0.000000
ld_trip_load_632_c_24,136.170618,2.081751,136.179700,2.081900,0.000000,0.000000
trip_load_645_b_h_3,135.902781,4.178635,135.911881,4.178785,0.000000,0.000000
ld_trip_load_645_b_3,135.902781,4.178635,135.911881,4.178785,0.000000,0.000000
trip_load_632_b_h_2,135.913379,4.178718,135.922478,4.178868,0.000000,0.000000
ld_trip_load_632_b_2,135.913379,4.178718,135.922478,4.178868,0.000000,0.000000
trip_load_632_c_h_25,136.170618,2.081751,136.179700,2.081900,0.000000,0.000000
ld_trip_load_632_c_25,136.170618,2.081751,136.179700,2.081900,0.000000,0.000000
trip_load_645_b_h_4,135.902781,4.178635,135.911881,4.178785,0.000000,0.000000
ld_trip_load_645_b_4,135.902781,4.178635,135.911881,4.178785,0.000000,0.000000
trip_load_632_b_h_3,135.913379,4.178718,135.922478,4.178868,0.000000,0.000000
ld_trip_load_632_b_3,135.913379,4.178718,135.922478,4.178868,0.000000,0.000000
trip_load_632_c_h_22,136.170618,2.081751,136.179700,2.081900,0.000000,0.000000
ld_trip_load_632_c_22,136.170618,2.081751,136.179700,2.081900,0.000000,0.000000
trip_load_645_b_h_5,135.902781,4.178635,135.911881,4.178785,0.000000,0.000000
ld_trip_load_645_b_5,135.902781,4.178635,135.911881,4.178785,0.000000,0.000000
trip_load_684_c_h_38,139.056268,2.070674,139.065161,2.070817,0.000000,0.000000
ld_trip_load_684_c_38,139.056268,2.070674,139.065161,2.070817,0.000000,0.000000
trip_load_632_b_h_4,135.913379,4.178718,135.922478,4.178868,0.000000,0.000000
ld_trip_load_632_b_4,135.913379,4.178718,135.922478,4.178868,0.000000,0.000000
trip_load_632_c_h_23,136.170618,2.081751,136.179700,2.081900,0.000000,0.000000
ld_trip_load_632_c_23,136.170618,2.081751,136.179700,2.081900,0.000000,0.000000
trip_load_645_b_h_6,135.902781,4.178635,135.911881,4.178785,0.000000,0.000000
ld_trip_load_645_b_6,135.902781,4.178635,135.911881,4.178785,0.000000,0.000000
trip_load_684_c_h_39,139.056268,2.070674,139.065161,2.070817,0.000000,0.000000
ld_trip_load_684_c_39,139.056268,2.070674,139.065161,2.070817,0.000000,0.000000
trip_load_632_c_h_20,136.170618,2.081751,136.179700,2.081900,0.000000,0.000000
ld_trip_load_632_c_20,136.170618,2.081751,136.179700,2.081900,0.000000,0.000000
trip_load_645_b_h_7,135.902781,4.178635,135.911881,4.178785,0.000000,0.000000
ld_trip_load_645_b_7,135.902781,4.178635,135.911881,4.178785,0.000000,0.000000
trip_load_684_c_h_36,139.056268,2.070674,139.065161,2.070817,0.000000,0.000000
ld_trip_load_684_c_36,139.056268,2.070674,139.065161,2.070817,0.000000,0.000000
trip_load_632_c_h_21,136.170618,2.081751,136.179700,2.081900,0.000000,0.000000
ld_trip_load_632_c_21,136.170618,2.081751,136.179700,2.081900,0.000000,0.000000
trip_load_645_b_h_8,135.902781,4.178635,135.911881,4.178785,0.000000,0.000000
ld_trip_load_645_b_8,135.902781,4.178635,135.911881,4.178785,0.000000,0.000000
trip_load_684_c_h_37,139.056268,2.070674,139.065161,2.070817,0.000000,0.000000
ld_trip_load_684_c_37,139.056268,2.070674,139.065161,2.070817,0.000000,0.000000
trip_load_645_b_h_9,135.902781,4.178635,135.911881,4.178785,0.000000,0.000000
ld_trip_load_645_b_9,135.902781,4.178635,135.911881,4.178785,0.000000,0.000000
trip_load_684_c_h_34,139.056268,2.070674,139.065161,2.070817,0.000000,0.000000
ld_trip_load_684_c_34,139.056268,2.070674,139.065161,2.070817,0.000000,0.000000
trip_load_684_c_h_35,139.056268,2.070674,139.065161,2.070817,0.000000,0.000000
ld_trip_load_684_c_35,139.056268,2.070674,139.065161,2.070817,0.000000,0.000000
trip_load_652_a_h_38,138.816939,-0.033327,138.825847,-0.033183,0.000000,0.000000
ld_trip_load_652_a_38,138.816939,-0.033327,138.825847,-0.033183,0.000000,0.000000
trip_load_652_a_h_37,138.816939,-0.033327,138.825847,-0.033183,0.000000,0.000000
ld_trip_load_652_a_37,138.816939,-0.033327,138.825847,-0.033183,0.000000,0.000000
trip_load_652_a_h_39,138.816939,-0.033327,138.825847,-0.033183,0.000000,0.000000
ld_trip_load_652_a_39,138.816939,-0.033327,138.825847,-0.033183,0.000000,0.000000
trip_load_632_c_h_28,136.170618,2.081751,136.179700,2.081900,0.000000,0.000000
ld_trip_load_632_c_28,136.170618,2.081751,136.179700,2.081900,0.000000,0.000000
trip_load_652_a_h_34,138.816939,-0.033327,138.825847,-0.033183,0.000000,0.000000
ld_trip_load_652_a_34,138.816939,-0.033327,138.825847,-0.033183,0.000000,0.000000
trip_load_671_a_h_17,138.848750,-0.032973,138.857657,-0.032829,0.000000,0.000000
ld_trip_load_671_a_17,138.848750,-0.032973,138.857657,-0.032829,0.000000,0.000000
trip_load_632_c_h_29,136.170618,2.081751,136.179700,2.081900,0.000000,0.000000
ld_trip_load_632_c_29,136.170618,2.081751,136.179700,2.081900,0.000000,0.000000
trip_load_652_a_h_33,138.816939,-0.033327,138.825847,-0.033183,0.000000,0.000000
ld_trip_load_652_a_33,138.816939,-0.033327,138.825847,-0.033183,0.000000,0.000000
trip_load_671_a_h_16,138.848750,-0.032973,138.857657,-0.032829,0.000000,0.000000
ld_trip_load_671_a_16,138.848750,-0.032973,138.857657,-0.032829,0.000000,0.000000
trip_load_632_c_h_26,136.170618,2.081751,136.179700,2.081900,0.000000,0.000000
ld_trip_load_632_c_26,136.170618,2.081751,136.179700,2.081900,0.000000,0.000000
trip_load_652_a_h_36,138.816939,-0.033327,138.825847,-0.033183,0.000000,0.000000
ld_trip_load_652_a_36,138.816939,-0.033327,138.825847,-0.033183,0.000000,0.000000
trip_load_671_a_h_19,138.848750,-0.032973,138.857657,-0.032829,0.000000,0.000000
ld_trip_load_671_a_19,138.848750,-0.032973,138.857657,-0.032829,0.000000,0.000000
trip_load_632_c_h_27,136.170618,2.081751,136.179700,2.081900,0.000000,0.000000
ld_trip_load_632_c_27,136.170618,2.081751,136.179700,2.081900,0.000000,0.000000
trip_load_652_a_h_35,138.816939,-0.033327,138.825847,-0.033183,0.000000,0.000000
ld_trip_load_652_a_35,138.816939,-0.033327,138.825847,-0.033183,0.000000,0.000000
trip_load_671_a_h_18,138.848750,-0.032973,138.857657,-0.032829,0.000000,0.000000
ld_trip_load_671_a_18,138.848750,-0.032973,138.857657,-0.032829,0.000000,0.000000
trip_load_671_a_h_13,138.848750,-0.032973,138.857657,-0.032829,0.000000,0.000000
ld_trip_load_671_a_13,138.848750,-0.032973,138.857657,-0.032829,0.000000,0.000000
trip_load_671_a_h_12,138.848750,-0.032973,138.857657,-0.032829,0.000000,0.000000
ld_trip_load_671_a_12,138.848750,-0.032973,138.857657,-0.032829,0.000000,0.000000
trip_load_671_a_h_15,138.848750,-0.032973,138.857657,-0.032829,0.000000,0.000000
ld_trip_load_671_a_15,138.848750,-0.032973,138.857657,-0.032829,0.000000,0.000000
trip_load_671_a_h_14,138.848750,-0.032973,138.857657,-0.032829,0.000000,0.000000
ld_trip_load_671_a_14,138.848750,-0.032973,138.857657,-0.032829,0.000000,0.000000
trip_load_671_a_h_11,138.848750,-0.032973,138.857657,-0.032829,0.000000,0.000000
ld_trip_load_671_a_11,138.848750,-0.032973,138.857657,-0.032829,0.000000,0.000000
trip_load_671_a_h_10,138.848750,-0.032973,138.857657,-0.032829,0.000000,0.000000
ld_trip_load_671_a_10,138.848750,-0.032973,138.857657,-0.032829,0.000000,0.000000
meter_684_a,2777.061998,-0.033015,0.000000,0.000000,0.000000,0.000000
trip_load_632_c_h_35,136.170618,2.081751,136.179700,2.081900,0.000000,0.000000
ld_trip_load_632_c_35,136.170618,2.081751,136.179700,2.081900,0.000000,0.000000
trip_load_632_c_h_36,136.170618,2.081751,136.179700,2.081900,0.000000,0.000000
ld_trip_load_632_c_36,136.170618,2.081751,136.179700,2.081900,0.000000,0.000000
trip_load_652_a_h_40,138.816939,-0.033327,138.825847,-0.033183,0.000000,0.000000
ld_trip_load_652_a_40,138.816939,-0.033327,138.825847,-0.033183,0.000000,0.000000
trip_load_632_c_h_33,136.170618,2.081751,136.179700,2.081900,0.000000,0.000000
ld_trip_load_632_c_33,136.170618,2.081751,136.179700,2.081900,0.000000,0.000000
trip_load_632_c_h_34,136.170618,2.081751,136.179700,2.081900,0.000000,0.000000
ld_trip_load_632_c_34,136.170618,2.081751,136.179700,2.081900,0.000000,0.000000
trip_load_632_c_h_31,136.170618,2.081751,136.179700,2.081900,0.000000,0.000000
ld_trip_load_632_c_31,136.170618,2.081751,136.179700,2.081900,0.000000,0.000000
trip_load_632_c_h_32,136.170618,2.081751,136.179700,2.081900,0.000000,0.000000
ld_trip_load_632_c_32,136.170618,2.081751,136.179700,2.081900,0.000000,0.000000
trip_load_632_c_h_30,136.170618,2.081751,136.179700,2.081900,0.000000,0.000000
ld_trip_load_632_c_30,136.170618,2.081751,136.179700,2.081900,0.000000,0.000000
trip_load_632_c_h_39,136.170618,2.081751,136.179700,2.081900,0.000000,0.000000
ld_trip_load_632_c_39,136.170618,2.081751,136.179700,2.081900,0.000000,0.000000
trip_load_632_c_h_37,136.170618,2.081751,136.179700,2.081900,0.000000,0.000000
ld_trip_load_632_c_37,136.170618,2.081751,136.179700,2.081900,0.000000,0.000000
trip_load_632_c_h_38,136.170618,2.081751,136.179700,2.081900,0.000000,0.000000
ld_trip_load_632_c_38,136.170618,2.081751,136.179700,2.081900,0.000000,0.000000
trip_node_645_c_4,136.174378,2.081717,136.174378,2.081717,0.000000,0.000000
trip_node_645_c_3,136.174378,2.081717,136.174378,2.081717,0.000000,0.000000
trip_node_645_c_5,136.174378,2.081717,136.174378,2.081717,0.000000,0.000000
trip_load_632_c_h_40,136.170618,2.081751,136.179700,2.081900,0.000000,0.000000
ld_trip_load_632_c_40,136.170618,2.081751,136.179700,2.081900,0.000000,0.000000
trip_node_645_c_2,136.174378,2.081717,136.174378,2.081717,0.000000,0.000000
trip_node_645_c_1,136.174378,2.081717,136.174378,2.081717,0.000000,0.000000
trip_load_675_a_h_5,139.570228,-0.036466,139.579089,-0.036323,0.000000,0.000000
ld_trip_load_675_a_5,139.570228,-0.036466,139.579089,-0.036323,0.000000,0.000000
trip_load_675_a_h_6,139.570228,-0.036466,139.579089,-0.036323,0.000000,0.000000
ld_trip_load_675_a_6,139.570228,-0.036466,139.579089,-0.036323,0.000000,0.000000
trip_load_675_a_h_3,139.570228,-0.036466,139.579089,-0.036323,0.000000,0.000000
ld_trip_load_675_a_3,139.570228,-0.036466,139.579089,-0.036323,0.000000,0.000000
trip_load_675_a_h_4,139.570228,-0.036466,139.579089,-0.036323,0.000000,0.000000
ld_trip_load_675_a_4,139.570228,-0.036466,139.579089,-0.036323,0.000000,0.000000
trip_load_675_a_h_1,139.570228,-0.036466,139.579089,-0.036323,0.000000,0.000000
ld_trip_load_675_a_1,139.570228,-0.036466,139.579089,-0.036323,0.000000,0.000000
trip_load_675_a_h_2,139.570228,-0.036466,139.579089,-0.036323,0.000000,0.000000
ld_trip_load_675_a_2,139.570228,-0.036466,139.579089,-0.036323,0.000000,0.000000
trip_load_675_a_h_9,139.570228,-0.036466,139.579089,-0.036323,0.000000,0.000000
ld_trip_load_675_a_9,139.570228,-0.036466,139.579089,-0.036323,0.000000,0.000000
trip_load_675_a_h_7,139.570228,-0.036466,139.579089,-0.036323,0.000000,0.000000
ld_trip_load_675_a_7,139.570228,-0.036466,139.579089,-0.036323,0.000000,0.000000
trip_load_675_a_h_8,139.570228,-0.036466,139.579089,-0.036323,0.000000,0.000000
ld_trip_load_675_a_8,139.570228,-0.036466,139.579089,-0.036323,0.000000,0.000000
xfmr_meter_671_b_2,0.000000,0.000000,2771.841419,4.170062,0.000000,0.000000
xfmr_meter_671_b_3,0.000000,0.000000,2771.841419,4.170062,0.000000,0.000000
xfmr_meter_671_b_4,0.000000,0.000000,2771.841419,4.170062,0.000000,0.000000
xfmr_meter_671_b_5,0.000000,0.000000,2771.841419,4.170062,0.000000,0.000000
xfmr_meter_671_b_1,0.000000,0.000000,2771.841419,4.170062,0.000000,0.000000
trip_load_645_c_h_8,136.169864,2.081641,136.178946,2.081791,0.000000,0.000000
ld_trip_load_645_c_8,136.169864,2.081641,136.178946,2.081791,0.000000,0.000000
trip_load_645_c_h_9,136.169864,2.081641,136.178946,2.081791,0.000000,0.000000
ld_trip_load_645_c_9,136.169864,2.081641,136.178946,2.081791,0.000000,0.000000
trip_load_645_c_h_6,136.169864,2.081641,136.178946,2.081791,0.000000,0.000000
ld_trip_load_645_c_6,136.169864,2.081641,136.178946,2.081791,0.000000,0.000000
trip_load_645_c_h_7,136.169864,2.081641,136.178946,2.081791,0.000000,0.000000
ld_trip_load_645_c_7,136.169864,2.081641,136.178946,2.081791,0.000000,0.000000
trip_load_645_c_h_4,136.169864,2.081641,136.178946,2.081791,0.000000,0.000000
ld_trip_load_645_c_4,136.169864,2.081641,136.178946,2.081791,0.000000,0.000000
trip_load_645_c_h_5,136.169864,2.081641,136.178946,2.081791,0.000000,0.000000
ld_trip_load_645_c_5,136.169864,2.081641,136.178946,2.081791,0.000000,0.000000
trip_load_645_c_h_2,136.169864,2.081641,136.178946,2.081791,0.000000,0.000000
ld_trip_load_645_c_2,136.169864,2.081641,136.178946,2.081791,0.000000,0.000000
trip_load_645_c_h_3,136.169864,2.081641,136.178946,2.081791,0.000000,0.000000
ld_trip_load_645_c_3,136.169864,2.081641,136.178946,2.081791,0.000000,0.000000
trip_load_645_c_h_1,136.169864,2.081641,136.178946,2.081791,0.000000,0.000000
ld_trip_load_645_c_1,136.169864,2.081641,136.178946,2.081791,0.000000,0.000000
meter_675_a,2791.508093,-0.036381,0.000000,0.000000,0.000000,0.000000
meter_675_b,0.000000,0.000000,2785.257813,4.167997,0.000000,0.000000
meter_675_c,0.000000,0.000000,0.000000,0.000000,2796.589929,2.068506
xfmr_meter_645_b_5,0.000000,0.000000,2718.146143,4.178719,0.000000,0.000000
xfmr_meter_645_b_3,0.000000,0.000000,2718.146143,4.178719,0.000000,0.000000
xfmr_meter_645_b_4,0.000000,0.000000,2718.146143,4.178719,0.000000,0.000000
xfmr_meter_645_b_1,0.000000,0.000000,2718.146143,4.178719,0.000000,0.000000
xfmr_meter_645_b_2,0.000000,0.000000,2718.146143,4.178719,0.000000,0.000000
trip_node_692_b_3,138.587969,4.170027,138.587969,4.170027,0.000000,0.000000
trip_node_632_b_1,135.917901,4.178793,135.917901,4.178793,0.000000,0.000000
trip_node_692_b_2,138.587969,4.170027,138.587969,4.170027,0.000000,0.000000
trip_node_692_b_1,138.587969,4.170027,138.587969,4.170027,0.000000,0.000000
trip_node_692_b_5,138.587969,4.170027,138.587969,4.170027,0.000000,0.000000
trip_node_692_b_4,138.587969,4.170027,138.587969,4.170027,0.000000,0.000000
trip_node_671_a_3,138.853176,-0.032900,138.853176,-0.032900,0.000000,0.000000
trip_node_671_a_2,138.853176,-0.032900,138.853176,-0.032900,0.000000,0.000000
trip_node_671_a_1,138.853176,-0.032900,138.853176,-0.032900,0.000000,0.000000
trip_node_632_b_4,135.917901,4.178793,135.917901,4.178793,0.000000,0.000000
trip_node_632_b_5,135.917901,4.178793,135.917901,4.178793,0.000000,0.000000
trip_node_632_b_2,135.917901,4.178793,135.917901,4.178793,0.000000,0.000000
trip_node_671_a_5,138.853176,-0.032900,138.853176,-0.032900,0.000000,0.000000
trip_node_632_b_3,135.917901,4.178793,135.917901,4.178793,0.000000,0.000000
trip_node_671_a_4,138.853176,-0.032900,138.853176,-0.032900,0.000000,0.000000
trip_load_632_a_h_8,136.045439,-0.017078,136.054529,-0.016928,0.000000,0.000000
ld_trip_load_632_a_8,136.045439,-0.017078,136.054529,-0.016928,0.000000,0.000000
trip_load_632_a_h_9,136.045439,-0.017078,136.054529,-0.016928,0.000000,0.000000
ld_trip_load_632_a_9,136.045439,-0.017078,136.054529,-0.016928,0.000000,0.000000
trip_load_632_a_h_6,136.045439,-0.017078,136.054529,-0.016928,0.000000,0.000000
ld_trip_load_632_a_6,136.045439,-0.017078,136.054529,-0.016928,0.000000,0.000000
trip_load_632_a_h_7,136.045439,-0.017078,136.054529,-0.016928,0.000000,0.000000
ld_trip_load_632_a_7,136.045439,-0.017078,136.054529,-0.016928,0.000000,0.000000
trip_load_632_a_h_4,136.045439,-0.017078,136.054529,-0.016928,0.000000,0.000000
ld_trip_load_632_a_4,136.045439,-0.017078,136.054529,-0.016928,0.000000,0.000000
trip_load_632_a_h_5,136.045439,-0.017078,136.054529,-0.016928,0.000000,0.000000
ld_trip_load_632_a_5,136.045439,-0.017078,136.054529,-0.016928,0.000000,0.000000
trip_load_632_a_h_2,136.045439,-0.017078,136.054529,-0.016928,0.000000,0.000000
ld_trip_load_632_a_2,136.045439,-0.017078,136.054529,-0.016928,0.000000,0.000000
trip_load_632_a_h_3,136.045439,-0.017078,136.054529,-0.016928,0.000000,0.000000
ld_trip_load_632_a_3,136.045439,-0.017078,136.054529,-0.016928,0.000000,0.000000
trip_load_632_a_h_1,136.045439,-0.017078,136.054529,-0.016928,0.000000,0.000000
ld_trip_load_632_a_1,136.045439,-0.017078,136.054529,-0.016928,0.000000,0.000000
xfmr_meter_680_b_3,0.000000,0.000000,2771.702240,4.169938,0.000000,0.000000
xfmr_meter_680_b_2,0.000000,0.000000,2771.702240,4.169938,0.000000,0.000000
xfmr_meter_680_b_1,0.000000,0.000000,2771.702240,4.169938,0.000000,0.000000
xfmr_meter_680_b_5,0.000000,0.000000,2771.702240,4.169938,0.000000,0.000000
xfmr_meter_680_b_4,0.000000,0.000000,2771.702240,4.169938,0.000000,0.000000
xfmr_meter_633_a_5,2720.878102,-0.017064,0.000000,0.000000,0.000000,0.000000
xfmr_meter_633_a_2,2720.878102,-0.017064,0.000000,0.000000,0.000000,0.000000
xfmr_meter_633_a_1,2720.878102,-0.017064,0.000000,0.000000,0.000000,0.000000
xfmr_meter_633_a_4,2720.878102,-0.017064,0.000000,0.000000,0.000000,0.000000
xfmr_meter_633_a_3,2720.878102,-0.017064,0.000000,0.000000,0.000000,0.000000
trip_node_680_a_1,138.841204,-0.033033,138.841204,-0.033033,0.000000,0.000000
trip_node_680_a_4,138.841204,-0.033033,138.841204,-0.033033,0.000000,0.000000
trip_node_680_a_5,138.841204,-0.033033,138.841204,-0.033033,0.000000,0.000000
trip_node_680_a_2,138.841204,-0.033033,138.841204,-0.033033,0.000000,0.000000
trip_node_680_a_3,138.841204,-0.033033,138.841204,-0.033033,0.000000,0.000000
trip_load_633_a_h_2,136.039384,-0.017147,136.048474,-0.016997,0.000000,0.000000
ld_trip_load_633_a_2,136.039384,-0.017147,136.048474,-0.016997,0.000000,0.000000
trip_load_633_a_h_1,136.039384,-0.017147,136.048474,-0.016997,0.000000,0.000000
ld_trip_load_633_a_1,136.039384,-0.017147,136.048474,-0.016997,0.000000,0.000000
meter_680_a,2776.839626,-0.033020,0.000000,0.000000,0.000000,0.000000
trip_load_633_a_h_4,136.039384,-0.017147,136.048474,-0.016997,0.000000,0.000000
ld_trip_load_633_a_4,136.039384,-0.017147,136.048474,-0.016997,0.000000,0.000000
meter_680_b,0.000000,0.000000,2771.717743,4.169943,0.000000,0.000000
trip_load_633_a_h_3,136.039384,-0.017147,136.048474,-0.016997,0.000000,0.000000
ld_trip_load_633_a_3,136.039384,-0.017147,136.048474,-0.016997,0.000000,0.000000
meter_680_c,0.000000,0.000000,0.000000,0.000000,2781.322772,2.070714
trip_load_633_a_h_9,136.039384,-0.017147,136.048474,-0.016997,0.000000,0.000000
ld_trip_load_633_a_9,136.039384,-0.017147,136.048474,-0.016997,0.000000,0.000000
trip_load_633_a_h_6,136.039384,-0.017147,136.048474,-0.016997,0.000000,0.000000
ld_trip_load_633_a_6,136.039384,-0.017147,136.048474,-0.016997,0.000000,0.000000
trip_load_633_a_h_5,136.039384,-0.017147,136.048474,-0.016997,0.000000,0.000000
ld_trip_load_633_a_5,136.039384,-0.017147,136.048474,-0.016997,0.000000,0.000000
trip_load_633_a_h_8,136.039384,-0.017147,136.048474,-0.016997,0.000000,0.000000
ld_trip_load_633_a_8,136.039384,-0.017147,136.048474,-0.016997,0.000000,0.000000
trip_load_633_a_h_7,136.039384,-0.017147,136.048474,-0.016997,0.000000,0.000000
ld_trip_load_633_a_7,136.039384,-0.017147,136.048474,-0.016997,0.000000,0.000000
trip_node_671_c_2,139.073163,2.070839,139.073163,2.070839,0.000000,0.000000
trip_node_671_c_3,139.073163,2.070839,139.073163,2.070839,0.000000,0.000000
trip_node_671_c_4,139.073163,2.070839,139.073163,2.070839,0.000000,0.000000
trip_node_671_c_5,139.073163,2.070839,139.073163,2.070839,0.000000,0.000000
trip_node_671_c_1,139.073163,2.070839,139.073163,2.070839,0.000000,0.000000
trip_load_611_c_h_1,139.044679,2.070589,139.053573,2.070733,0.000000,0.000000
ld_trip_load_611_c_1,139.044679,2.070589,139.053573,2.070733,0.000000,0.000000
trip_load_611_c_h_2,139.044679,2.070589,139.053573,2.070733,0.000000,0.000000
ld_trip_load_611_c_2,139.044679,2.070589,139.053573,2.070733,0.000000,0.000000
trip_load_611_c_h_5,139.044679,2.070589,139.053573,2.070733,0.000000,0.000000
ld_trip_load_611_c_5,139.044679,2.070589,139.053573,2.070733,0.000000,0.000000
trip_load_611_c_h_6,139.044679,2.070589,139.053573,2.070733,0.000000,0.000000
ld_trip_load_611_c_6,139.044679,2.070589,139.053573,2.070733,0.000000,0.000000
trip_load_611_c_h_3,139.044679,2.070589,139.053573,2.070733,0.000000,0.000000
ld_trip_load_611_c_3,139.044679,2.070589,139.053573,2.070733,0.000000,0.000000
trip_load_611_c_h_4,139.044679,2.070589,139.053573,2.070733,0.000000,0.000000
ld_trip_load_611_c_4,139.044679,2.070589,139.053573,2.070733,0.000000,0.000000
trip_load_611_c_h_9,139.044679,2.070589,139.053573,2.070733,0.000000,0.000000
ld_trip_load_611_c_9,139.044679,2.070589,139.053573,2.070733,0.000000,0.000000
trip_load_611_c_h_7,139.044679,2.070589,139.053573,2.070733,0.000000,0.000000
ld_trip_load_611_c_7,139.044679,2.070589,139.053573,2.070733,0.000000,0.000000
trip_load_611_c_h_8,139.044679,2.070589,139.053573,2.070733,0.000000,0.000000
ld_trip_load_611_c_8,139.044679,2.070589,139.053573,2.070733,0.000000,0.000000
xfmr_meter_675_c_5,0.000000,0.000000,0.000000,0.000000,2796.574564,2.068501
xfmr_meter_632_c_5,0.000000,0.000000,0.000000,0.000000,2723.502697,2.081834
xfmr_meter_632_c_4,0.000000,0.000000,0.000000,0.000000,2723.502697,2.081834
xfmr_meter_632_c_3,0.000000,0.000000,0.000000,0.000000,2723.502697,2.081834
xfmr_meter_675_c_2,0.000000,0.000000,0.000000,0.000000,2796.574564,2.068501
xfmr_meter_632_c_2,0.000000,0.000000,0.000000,0.000000,2723.502697,2.081834
xfmr_meter_675_c_1,0.000000,0.000000,0.000000,0.000000,2796.574564,2.068501
xfmr_meter_632_c_1,0.000000,0.000000,0.000000,0.000000,2723.502697,2.081834
xfmr_meter_675_c_4,0.000000,0.000000,0.000000,0.000000,2796.574564,2.068501
xfmr_meter_675_c_3,0.000000,0.000000,0.000000,0.000000,2796.574564,2.068501
trip_load_692_c_h_21,139.064628,2.070738,139.073521,2.070882,0.000000,0.000000
ld_trip_load_692_c_21,139.064628,2.070738,139.073521,2.070882,0.000000,0.000000
trip_load_692_c_h_20,139.064628,2.070738,139.073521,2.070882,0.000000,0.000000
ld_trip_load_692_c_20,139.064628,2.070738,139.073521,2.070882,0.000000,0.000000
trip_load_692_c_h_23,139.064628,2.070738,139.073521,2.070882,0.000000,0.000000
ld_trip_load_692_c_23,139.064628,2.070738,139.073521,2.070882,0.000000,0.000000
trip_load_692_c_h_22,139.064628,2.070738,139.073521,2.070882,0.000000,0.000000
ld_trip_load_692_c_22,139.064628,2.070738,139.073521,2.070882,0.000000,0.000000
trip_load_633_a_h_40,136.039384,-0.017147,136.048474,-0.016997,0.000000,0.000000
ld_trip_load_633_a_40,136.039384,-0.017147,136.048474,-0.016997,0.000000,0.000000
trip_load_692_c_h_25,139.064628,2.070738,139.073521,2.070882,0.000000,0.000000
ld_trip_load_692_c_25,139.064628,2.070738,139.073521,2.070882,0.000000,0.000000
trip_load_692_c_h_24,139.064628,2.070738,139.073521,2.070882,0.000000,0.000000
ld_trip_load_692_c_24,139.064628,2.070738,139.073521,2.070882,0.000000,0.000000
trip_load_692_c_h_27,139.064628,2.070738,139.073521,2.070882,0.000000,0.000000
ld_trip_load_692_c_27,139.064628,2.070738,139.073521,2.070882,0.000000,0.000000
trip_load_692_c_h_26,139.064628,2.070738,139.073521,2.070882,0.000000,0.000000
ld_trip_load_692_c_26,139.064628,2.070738,139.073521,2.070882,0.000000,0.000000
trip_load_692_a_h_1,138.844637,-0.033001,138.853544,-0.032857,0.000000,0.000000
ld_trip_load_692_a_1,138.844637,-0.033001,138.853544,-0.032857,0.000000,0.000000
trip_load_692_c_h_29,139.064628,2.070738,139.073521,2.070882,0.000000,0.000000
ld_trip_load_692_c_29,139.064628,2.070738,139.073521,2.070882,0.000000,0.000000
trip_load_692_c_h_28,139.064628,2.070738,139.073521,2.070882,0.000000,0.000000
ld_trip_load_692_c_28,139.064628,2.070738,139.073521,2.070882,0.000000,0.000000
trip_load_692_a_h_3,138.844637,-0.033001,138.853544,-0.032857,0.000000,0.000000
ld_trip_load_692_a_3,138.844637,-0.033001,138.853544,-0.032857,0.000000,0.000000
trip_load_692_a_h_2,138.844637,-0.033001,138.853544,-0.032857,0.000000,0.000000
ld_trip_load_692_a_2,138.844637,-0.033001,138.853544,-0.032857,0.000000,0.000000
trip_load_692_a_h_9,138.844637,-0.033001,138.853544,-0.032857,0.000000,0.000000
ld_trip_load_692_a_9,138.844637,-0.033001,138.853544,-0.032857,0.000000,0.000000
trip_load_692_a_h_8,138.844637,-0.033001,138.853544,-0.032857,0.000000,0.000000
ld_trip_load_692_a_8,138.844637,-0.033001,138.853544,-0.032857,0.000000,0.000000
trip_load_692_a_h_5,138.844637,-0.033001,138.853544,-0.032857,0.000000,0.000000
ld_trip_load_692_a_5,138.844637,-0.033001,138.853544,-0.032857,0.000000,0.000000
trip_load_692_a_h_4,138.844637,-0.033001,138.853544,-0.032857,0.000000,0.000000
ld_trip_load_692_a_4,138.844637,-0.033001,138.853544,-0.032857,0.000000,0.000000
trip_load_692_a_h_7,138.844637,-0.033001,138.853544,-0.032857,0.000000,0.000000
ld_trip_load_692_a_7,138.844637,-0.033001,138.853544,-0.032857,0.000000,0.000000
trip_load_692_a_h_6,138.844637,-0.033001,138.853544,-0.032857,0.000000,0.000000
ld_trip_load_692_a_6,138.844637,-0.033001,138.853544,-0.032857,0.000000,0.000000
n611,0.000000,0.000000,0.000000,0.000000,2781.074751,2.070703
trip_load_633_a_h_37,136.039384,-0.017147,136.048474,-0.016997,0.000000,0.000000
ld_trip_load_633_a_37,136.039384,-0.017147,136.048474,-0.016997,0.000000,0.000000
trip_load_633_a_h_36,136.039384,-0.017147,136.048474,-0.016997,0.000000,0.000000
ld_trip_load_633_a_36,136.039384,-0.017147,136.048474,-0.016997,0.000000,0.000000
trip_load_633_a_h_39,136.039384,-0.017147,136.048474,-0.016997,0.000000,0.000000
ld_trip_load_633_a_39,136.039384,-0.017147,136.048474,-0.016997,0.000000,0.000000
trip_load_692_c_h_30,139.064628,2.070738,139.073521,2.070882,0.000000,0.000000
ld_trip_load_692_c_30,139.064628,2.070738,139.073521,2.070882,0.000000,0.000000
trip_load_633_a_h_38,136.039384,-0.017147,136.048474,-0.016997,0.000000,0.000000
ld_trip_load_633_a_38,136.039384,-0.017147,136.048474,-0.016997,0.000000,0.000000
trip_load_633_a_h_33,136.039384,-0.017147,136.048474,-0.016997,0.000000,0.000000
ld_trip_load_633_a_33,136.039384,-0.017147,136.048474,-0.016997,0.000000,0.000000
trip_load_692_c_h_10,139.064628,2.070738,139.073521,2.070882,0.000000,0.000000
ld_trip_load_692_c_10,139.064628,2.070738,139.073521,2.070882,0.000000,0.000000
trip_load_633_a_h_32,136.039384,-0.017147,136.048474,-0.016997,0.000000,0.000000
ld_trip_load_633_a_32,136.039384,-0.017147,136.048474,-0.016997,0.000000,0.000000
trip_load_633_a_h_35,136.039384,-0.017147,136.048474,-0.016997,0.000000,0.000000
ld_trip_load_633_a_35,136.039384,-0.017147,136.048474,-0.016997,0.000000,0.000000
trip_load_692_c_h_12,139.064628,2.070738,139.073521,2.070882,0.000000,0.000000
ld_trip_load_692_c_12,139.064628,2.070738,139.073521,2.070882,0.000000,0.000000
trip_load_633_a_h_34,136.039384,-0.017147,136.048474,-0.016997,0.000000,0.000000
ld_trip_load_633_a_34,136.039384,-0.017147,136.048474,-0.016997,0.000000,0.000000
trip_load_692_c_h_11,139.064628,2.070738,139.073521,2.070882,0.000000,0.000000
ld_trip_load_692_c_11,139.064628,2.070738,139.073521,2.070882,0.000000,0.000000
trip_load_692_c_h_14,139.064628,2.070738,139.073521,2.070882,0.000000,0.000000
ld_trip_load_692_c_14,139.064628,2.070738,139.073521,2.070882,0.000000,0.000000
trip_load_692_c_h_13,139.064628,2.070738,139.073521,2.070882,0.000000,0.000000
ld_trip_load_692_c_13,139.064628,2.070738,139.073521,2.070882,0.000000,0.000000
trip_load_633_a_h_31,136.039384,-0.017147,136.048474,-0.016997,0.000000,0.000000
ld_trip_load_633_a_31,136.039384,-0.017147,136.048474,-0.016997,0.000000,0.000000
trip_load_692_c_h_16,139.064628,2.070738,139.073521,2.070882,0.000000,0.000000
ld_trip_load_692_c_16,139.064628,2.070738,139.073521,2.070882,0.000000,0.000000
trip_load_633_a_h_30,136.039384,-0.017147,136.048474,-0.016997,0.000000,0.000000
ld_trip_load_633_a_30,136.039384,-0.017147,136.048474,-0.016997,0.000000,0.000000
trip_load_692_c_h_15,139.064628,2.070738,139.073521,2.070882,0.000000,0.000000
ld_trip_load_692_c_15,139.064628,2.070738,139.073521,2.070882,0.000000,0.000000
trip_load_692_c_h_18,139.064628,2.070738,139.073521,2.070882,0.000000,0.000000
ld_trip_load_692_c_18,139.064628,2.070738,139.073521,2.070882,0.000000,0.000000
...